10
Cyclopentyl
C   -0.6957   -0.9575    0.0000  
C    0.6957   -0.9575    0.0000  
C   -1.1256    0.3657    0.0000 
C    1.1256    0.3657   -0.0000
C    0.0000    1.1836   -0.0000
H   -1.2958   -1.7835   -0.0000
H    1.2958   -1.7835   -0.0000
H   -2.0966    0.6812   -0.0000
H    2.0966    0.6812    0.0000
H   -0.0000    2.2045    0.0000
